*---------- DMP2305U Spice Model ----------
.SUBCKT DMP2305U 10 20 30 
*     TERMINALS:  D  G  S
M1 1 2 3 3  PMOS  L = 1E-006  W = 1E-006 
RD 10 1 0.03653 
RS 30 3 0.001 
RG 20 2 23 
CGS 2 3 6.954E-010 
EGD 12 30 2 1 1 
VFB 14 30 0 
FFB 2 1  VFB 1 
CGD 13 14 8.85E-010 
R1 13 30 1 
D1 13 12  DLIM 
DDG 14 15  DCGD 
R2 12 15 1 
D2 30 15  DLIM 
DSD 10 3  DSUB 
.MODEL PMOS PMOS  LEVEL = 3  U0 = 400  VMAX = 1.385E+005  ETA = 0.001 
+ TOX = 6E-008  NSUB = 1E+016  KP = 24.44  KAPPA = 0.8442  VTO = -0.8978 
.MODEL DCGD D  CJO = 3.468E-010  VJ = 0.2064  M = 0.3945 
.MODEL DSUB D  IS = 4.536E-009  N = 1.339  RS = 0.05752  BV = 30  CJO = 2.406E-011  VJ = 1.677E-012  M = 0.8 
.MODEL DLIM D  IS = 0.0001 
.ENDS
*Diodes DMP2305U  Spice Model v1.0 Last Revised 2011/6/20