Version 4
SHEET 1 880 680
TEXT 8 168 Left 2 !.step param Vgs list -2.5 -3.0 -4.0 -4.5 -10.0
TEXT 8 200 Left 2 !.inc DMP3056L-batch.asc
TEXT 8 232 Left 2 !.dc Vds 0 -5 -0.05
